      12
 i =        1, E =       -24.4573569838
 Al         0.0000000000        0.0000000000        4.0824639152
 Al         4.0500000000        0.0000000000        4.0824639152
 Al         0.0000000000        4.0500000000        4.0824639152
 Al         4.0500000000        4.0500000000        4.0824639152
 Al         2.0250000000        2.0250000000        5.9999957330
 Al         6.0750000000        2.0250000000        5.9999957330
 Al         2.0250000000        6.0750000000        5.9999957330
 Al         6.0750000000        6.0750000000        5.9999957330
 Al         0.0000000000        0.0000000000        7.9175378564
 Al         4.0500000000        0.0000000000        7.9175378564
 Al         0.0000000000        4.0500000000        7.9175378564
 Al         4.0500000000        4.0500000000        7.9175378564
      12
 i =        2, E =       -24.4766374639
 Al         0.0000000000        0.0000000000        4.3324639152
 Al         4.0500000000        0.0000000000        4.3324639152
 Al         0.0000000000        4.0500000000        4.3324639152
 Al         4.0500000000        4.0500000000        4.3324639152
 Al         2.0250000000        2.0250000000        5.9999810256
 Al         6.0750000000        2.0250000000        5.9999810256
 Al         2.0250000000        6.0750000000        5.9999810256
 Al         6.0750000000        6.0750000000        5.9999810256
 Al         0.0000000000        0.0000000000        7.6675429353
 Al         4.0500000000        0.0000000000        7.6675429353
 Al         0.0000000000        4.0500000000        7.6675429353
 Al         4.0500000000        4.0500000000        7.6675429353
      12
 i =        3, E =       -24.4779974221
 Al         0.0000004137        0.0000000000        4.2752369522
 Al         4.0500004137        0.0000000000        4.2752369522
 Al         0.0000004137        4.0500000000        4.2752369522
 Al         4.0500004137        4.0500000000        4.2752369522
 Al         2.0250000000        2.0250000000        5.9999837388
 Al         6.0750000000        2.0250000000        5.9999837388
 Al         2.0250000000        6.0750000000        5.9999837388
 Al         6.0750000000        6.0750000000        5.9999837388
 Al        -0.0000004136        0.0000000000        7.7247678434
 Al         4.0499995864        0.0000000000        7.7247678434
 Al        -0.0000004136        4.0500000000        7.7247678434
 Al         4.0499995864        4.0500000000        7.7247678434
      12
 i =        4, E =       -24.4780244227
 Al         0.0000004049        0.0000000000        4.2822102097
 Al         4.0500004049        0.0000000000        4.2822102097
 Al         0.0000004049        4.0500000000        4.2822102097
 Al         4.0500004049        4.0500000000        4.2822102097
 Al         2.0250000000        2.0250000000        5.9999823962
 Al         6.0750000000        2.0250000000        5.9999823962
 Al         2.0250000000        6.0750000000        5.9999823962
 Al         6.0750000000        6.0750000000        5.9999823962
 Al        -0.0000004050        0.0000000000        7.7177921601
 Al         4.0499995950        0.0000000000        7.7177921601
 Al        -0.0000004050        4.0500000000        7.7177921601
 Al         4.0499995950        4.0500000000        7.7177921601
      12
 i =        5, E =       -24.4780244227
 Al         0.0000003783        0.0000000000        4.2822232641
 Al         4.0500003783        0.0000000000        4.2822232641
 Al         0.0000003783        4.0500000000        4.2822232641
 Al         4.0500003783        4.0500000000        4.2822232641
 Al         2.0250000000        2.0250000000        5.9999812996
 Al         6.0750000000        2.0250000000        5.9999812996
 Al         2.0250000000        6.0750000000        5.9999812996
 Al         6.0750000000        6.0750000000        5.9999812996
 Al        -0.0000003782        0.0000000000        7.7177808501
 Al         4.0499996218        0.0000000000        7.7177808501
 Al        -0.0000003782        4.0500000000        7.7177808501
 Al         4.0499996218        4.0500000000        7.7177808501
      12
 i =        6, E =       -24.4780109776
 Al         0.0000003783        0.0000000000        4.2822232641
 Al         4.0500003783        0.0000000000        4.2822232641
 Al         0.0000003783        4.0500000000        4.2822232641
 Al         4.0500003783        4.0500000000        4.2822232641
 Al         2.0250000000        2.0250000000        5.9999812996
 Al         6.0750000000        2.0250000000        5.9999812996
 Al         2.0250000000        6.0750000000        5.9999812996
 Al         6.0750000000        6.0750000000        5.9999812996
 Al        -0.0000003782        0.0000000000        7.7177808501
 Al         4.0499996218        0.0000000000        7.7177808501
 Al        -0.0000003782        4.0500000000        7.7177808501
 Al         4.0499996218        4.0500000000        7.7177808501
