104
 energy: -137.451991583883 gnorm: 0.004963506050 xtb: 6.7.1 (edcfbbe)
Al           1.82701206885306        1.48929822341711        8.65560680382773
Al           4.50808291279038        0.48902725645793        8.62695311053423
Al           7.34885281252041       -0.29957978391075        8.96841624637332
Al          10.11645626361818       -0.68361248493498        9.46902234599057
Al           2.24409176292710        4.27598186707109        8.66862964801676
Al           5.28066214193184        3.45566932061408        8.61438045799824
Al           8.11043295263619        2.69827983470124        8.99436267228964
Al          11.02754780592527        1.99077427510052        9.21607455042104
Al           2.66378790760860        7.06706029958786        8.71789153741548
Al           6.00514342714288        6.19117929407672        8.60122514059404
Al           8.86125070858640        5.63180783043634        8.68078714481687
Al          11.82775157522065        4.80211456076839        9.06847476312768
Al           4.83825319437265        9.04843777829605        8.68938346972303
Al           7.44196229362449       10.11452685042388        8.94224956825991
Al           9.78924783346754        8.58547858604101        8.89548754947917
Al          12.39627900723708        7.60582343717564        9.22420375327141
Al           1.11622008103573        1.39876507861993       11.42403751252977
Al           4.12024088978820        0.33521605833201       11.55768487583007
Al           7.00444379630633       -0.75927060096127       11.89321019598145
Al          10.11919977713567       -0.93977171344042       12.32110915625749
Al           1.66269293726872        4.33328434345070       11.68747958288086
Al           4.99233069928018        3.27528484948455       12.04107847224876
Al           7.82115941031027        2.50529264325823       12.26220739678151
Al          11.04451781608193        2.00269048349115       12.30648039378933
Al           2.09437024241514        7.41877069188100       11.47493483512012
Al           5.88227242786571        6.15565904482938       11.83830956558164
Al           8.83774444438712        5.95591332936036       11.83935587371967
Al          12.03636703688963        4.88006759544527       12.05584438805680
Al           4.59836742631274        9.13857243849548       11.69096762501366
Al           7.38576471055368       10.64093615485336       11.78015987223658
Al           9.85592338721837        9.00014145352233       12.06176842934912
Al          12.65641098314892        7.98102334416267       12.02662654576416
Al           0.63731596897036        0.02660293911515       13.82228226667050
Al           3.18572612295629       -1.39994234557378       13.83107192389667
Al           5.87198387187639       -2.43104079522501       13.86161942562515
Al           9.95198588277807       -0.93220784464232       15.13115115915069
Al           0.55170703751681        5.19967090048210       14.11602550575389
Al           4.54231165616739        3.01403383905261       15.18212265058647
Al           7.39319596196333        1.61199548774505       15.01530162264337
Al          11.56498717157258        2.23200573409139       15.12928152434125
Al           1.56557829885945        7.94846285831304       14.32399988916765
Al           5.52018277450937        5.84426140432645       14.78939396044864
Al           8.61822377644222        4.96548225733065       14.52140905445031
Al          13.03621258444703        4.93485936274504       14.71658489399418
Al           4.39018683742469        9.41340588536413       14.51908955139133
Al           7.09481323865653       10.77614522863131       14.59387665224837
Al          10.13210455274369        9.46433411417248       14.99285516375177
Al          12.88649193316838        8.04500709008095       14.92352397563420
Al           0.88446619919743        1.17016409159430       16.39329407586289
Al           3.81257000676288        0.12863681402572       16.30355853344063
Al           6.95610660767523       -1.21349384127325       16.16557010663104
Al          11.67067915895342       -0.98952989438669       17.29851596522341
Al           1.66477346441661        4.11450215035581       16.39480550088693
Al           6.55896457468033        2.40371074590151       18.04304431549649
Al           9.26073954558980        3.20498205183380       16.99920519303885
Al          12.86865271618691        1.69245747084304       17.63752189211906
Al           1.93412257444642        7.66253980559246       17.14166971198459
Al           6.10674652543227        6.84754759411186       17.35119541308916
Al           9.15802748267173        6.89406581407911       16.65205177891250
Al          13.85646240401549        4.71098881713121       17.47886772564383
Al           4.30484933198116        9.44464155090286       17.42603643209187
Al           6.98833384026880       11.27621725710780       17.40236926489114
Al           9.85124048670196       10.60367398857388       17.52614832875706
Al          13.72609274628466        7.68694466039818       17.58387907382015
Al           0.90261337368018        1.03278210469738       19.28176797619932
Al           3.77283831453856       -0.10434509153288       19.14080969845821
Al           6.68515808422997       -0.75931973045682       19.09877110200436
Al           9.78115851709418       -0.78139123266159       19.33052814418537
Al           1.25598796201133        4.14214164237427       19.31419735594403
Al           4.31385728560779        3.39887402561120       19.48020093632908
Al           7.88235591357359        4.04842988715685       20.36754530806045
Al          10.79064074806690        2.26766027294733       19.63930616345621
Al           1.27471204925987        7.03853930970771       19.77523406195348
Al           5.52129126949919        6.06534363547882       20.02558332877989
Al           9.64159286565981        6.31705119187891       19.29938234558789
Al          12.36488541912475        4.90379076950262       19.94182288839834
Al           4.82481709818015        9.18021248448449       20.46345859212909
Al           7.15376582752997       10.66021295584319       20.17118036686182
Al           9.87158029709393        9.47905042943411       20.16663859739467
Al          12.70134063054556        8.15185582036505       20.15009526769707
Al           1.24203962850926        1.15447585099464       22.07172770544221
Al           3.97337483648449        0.11127306947404       22.19907221511899
Al           6.78258643497782       -0.43017567226358       22.10381252704051
Al           9.56584971092571       -0.78036197760667       22.08639241188885
Al           1.57769642979791        3.89845394719680       22.41863999082224
Al           4.59674044362713        3.01955765346990       22.54721476258381
Al           7.63043021285924        2.59557645663956       23.39723250301934
Al          10.49551674141790        1.89155934555907       22.61130307395488
Al           1.82916825888347        6.75600245943349       22.48392995428078
Al           4.97107548492875        5.85198957902698       23.33422832082367
Al           8.90873968514922        5.74900615629026       22.49416277191236
Al          11.72759828248267        4.59339002296439       22.80522844232068
Al           4.16439118166003        8.55411410060144       23.10537726181289
Al           7.06546520776485        8.04053469335787       24.50856738305156
Al           9.63356142311613        8.53006757388921       23.08478618856759
Al          12.24831057328103        7.45684678281510       22.83325305918634
C            5.91123287228109        4.20951368201608       25.18405512077902
N            7.21271877633763        4.13156890826922       24.76985574174152
C            7.85899024282550        5.41639106139412       24.43723142865090
N            7.09825946503056        6.24189386640446       23.46212605082718
N            5.18866731820018        5.35608863108055       25.38469007289344
H            5.34159647064780        3.24514625665865       25.14809756417068
H            8.06346842438568        6.01427334026643       25.39037343315076
H            5.87724277895358        6.08995304433508       25.64559906759446
